/PREP7
ET, 1, solid95
MP, EX, 1, 2.1E5
LESIZE,ALL,,,4  
ESHAPE,2
VMESH,ALL
FINISH