/batch
/config,noeldb,1     ! force off writing results to database
*get,_wallstrt,active,,time,wall
! ANSYS input file written by Workbench version 2021 R2
! File used for geometry attach: C:\Users\wilus\Mój dysk\PG\Ansys\ansys projekt 6\walek tuleja_files\dp0\SYS\DM\SYS.agdb
/title,walek tuleja--Static Structural (A5)
! ****** Begin Custom Load Command Snippet ******
/COM, ACT Extensions:
/COM,     LSDYNA, 2021.1
/COM,     5f463412-bd3e-484b-87e7-cbc0a665e474, wbex
/COM,
! ****** End   Custom Load Command Snippet ******
*DIM,_wb_ProjectScratch_dir,string,248
_wb_ProjectScratch_dir(1) = 'C:\Users\wilus\Mój dysk\PG\Ansys\ansys projekt 6\_ProjectScratch\ScrCB36\'
*DIM,_wb_SolverFiles_dir,string,248
_wb_SolverFiles_dir(1) = 'C:\Users\wilus\Mój dysk\PG\Ansys\ansys projekt 6\walek tuleja_files\dp0\SYS\MECH\'
*DIM,_wb_userfiles_dir,string,248
_wb_userfiles_dir(1) = 'C:\Users\wilus\Mój dysk\PG\Ansys\ansys projekt 6\walek tuleja_files\user_files\'
/com,--- Data in consistent NMM units. See Solving Units in the help system for more information.
/units,MPA
/nopr
/wb,file,start              !  signify a WB generated input file
/prep7
! Turn off shape checking because checks already performed inside WB mesher.
! See help system for more information.
SHPP,OFF,,NOWARN
/nolist
etcon,set             ! allow ANSYS to choose best KEYOP's for 180x elements, resets any applicable keyopt to MAPDL defaults
/com,*********** Nodes for the whole assembly ***********
nblock,3,,13635
(1i9,3e20.9e3)
        1     4.100000000E+01     1.274746252E-14    -2.250000000E+01
        2     4.100000000E+01    -7.695453225E+00    -2.114308397E+01
        3     4.100000000E+01    -1.446272122E+01    -1.723599997E+01
        4     4.100000000E+01    -1.948557159E+01    -1.125000000E+01
        5     4.100000000E+01    -2.215817444E+01    -3.907083998E+00
        6     4.100000000E+01    -2.215817444E+01     3.907083998E+00
        7     4.100000000E+01    -1.948557159E+01     1.125000000E+01
        8     4.100000000E+01    -1.446272122E+01     1.723599997E+01
        9     4.100000000E+01    -7.695453225E+00     2.114308397E+01
       10     4.100000000E+01    -1.387778781E-14     2.250000000E+01
       11     4.100000000E+01     7.695453225E+00     2.114308397E+01
       12     4.100000000E+01     1.446272122E+01     1.723599997E+01
       13     4.100000000E+01     1.948557159E+01     1.125000000E+01
       14     4.100000000E+01     2.215817444E+01     3.907083998E+00
       15     4.100000000E+01     2.215817444E+01    -3.907083998E+00
       16     4.100000000E+01     1.948557159E+01    -1.125000000E+01
       17     4.100000000E+01     1.446272122E+01    -1.723599997E+01
       18     4.100000000E+01     7.695453225E+00    -2.114308397E+01
       19     4.100000000E+01    -3.907083998E+00    -2.215817444E+01
       20     4.100000000E+01    -1.125000000E+01    -1.948557159E+01
! ... 12377 like lines cut
/wb,elem,start            !  set before creation of elements
/com,*********** Elements for Body 1 "wal" ***********
et,1,187
eblock,19,solid,,3765
(19i9)
        1        1        1        1        0        0        0        0       10        0     2943     5782     5804     6619     6614     8283     8415     8287     8286
     8414    12396
        1        1        1        1        0        0        0        0       10        0     2944     5782     5827     6619     5804     8285     8540     8287     8283
     8410     8415
        1        1        1        1        0        0        0        0       10        0     2945     5737     6619     5760     6437     8044     8170     8039     8041
    11824     8169
        1        1        1        1        0        0        0        0       10        0     2946     5737     5760     6619     5782     8039     8170     8044     8040
     8166     8287
        1        1        1        1        0        0        0        0       10        0     2947     5760     6619     5783     6437     8170     8294     8167     8169
    11824     8291
        1        1        1        1        0        0        0        0       10        0     2948     5760     5783     6619     5805     8167     8294     8170     8168
     8288     8420
        1        1        1        1        0        0        0        0       10        0     2949     5827     5850     6619     6416     8537     8658     8540     8539
     8656    11712
        1        1        1        1        0        0        0        0       10        0     2950     5805     5827     5850     6619     8416     8537     8418     8420
     8540     8658
        1        1        1        1        0        0        0        0       10        0     2951     5782     6619     5827     5805     8287     8540     8285     8284
     8420     8416
        1        1        1        1        0        0        0        0       10        0     2952     5737     5782     6619     6614     8040     8287     8044     8043
     8286    12396
! ... 7511 like lines cut
!Material Id = {0BA7F5D3-62A6-4AFA-878F-19A1E8CA8D2F}
/com,*********** Elements for Body 2 "Solid" ***********
et,2,187
eblock,19,solid,,2942
(19i9)
        2        2        2        2        0        0        0        0       10        0        1      710      904      831      777     4799     5410     4798     4797
     5190     5187
        2        2        2        2        0        0        0        0       10        0        2      740      831      904      777     4937     5410     4939     4934
     5187     5190
        2        2        2        2        0        0        0        0       10        0        3      705      710      904      831     4764     4799     4770     4768
     4798     5410
        2        2        2        2        0        0        0        0       10        0        4      509      904      740      772     3839     4939     3837     3838
     5166     4933
        2        2        2        2        0        0        0        0       10        0        5      509      904      546      740     3839     4006     3835     3837
     4939     4003
        2        2        2        2        0        0        0        0       10        0        6      474      509      904      546     3668     3839     3672     3669
     3835     4006
        2        2        2        2        0        0        0        0       10        0        7      474      904      710      777     3672     4799     3670     3671
     5190     4797
        2        2        2        2        0        0        0        0       10        0        8      114      710      904      705     1683     4799     1684     1682
     4764     4770
        2        2        2        2        0        0        0        0       10        0        9      438      705      904      772     3506     4770     3508     3507
     4767     5166
        2        2        2        2        0        0        0        0       10        0       10      438      509      904      474     3505     3839     3508     3504
     3668     3672
! ... 5865 like lines cut
!Material Id = {71B1FC30-D51D-4644-837F-5C96E4202201}
/wb,elem,end               !  done creating elements
/com,*********** Send User Defined Coordinate System(s) ***********
csys,0
toffst,273.15,  ! Temperature offset from absolute zero
/com,*********** Set Reference Temperature ***********
tref,22.
/wb,mat,start              !  starting to send materials
/com,*********** Send Materials ***********
Temperature = 'TEMP' ! Temperature
MP,DENS,1,7.85e-09,	! tonne mm^-3
MP,ALPX,1,1.2e-05,	! C^-1
MP,C,1,434000000,	! mm^2 s^-2 C^-1
MP,KXX,1,60.5,	! tonne mm s^-3 C^-1
MP,RSVX,1,0.00017,	! ohm mm
MP,EX,1,200000,	! tonne s^-2 mm^-1
MP,NUXY,1,0.3,
MP,MURX,1,10000,
MP,UVID,1,80909ea5-9276-4949-a70a-896adedea40f
MP,UMID,1,59002a79-71c2-428e-906b-55d7dbee100e

Temperature = 'TEMP' ! Temperature
MP,DENS,2,7.85e-09,	! tonne mm^-3
MP,ALPX,2,1.2e-05,	! C^-1
MP,C,2,434000000,	! mm^2 s^-2 C^-1
MP,KXX,2,60.5,	! tonne mm s^-3 C^-1
MP,RSVX,2,0.00017,	! ohm mm
MP,EX,2,200000,	! tonne s^-2 mm^-1
MP,NUXY,2,0.3,
MP,MURX,2,10000,
MP,UVID,2,80909ea5-9276-4949-a70a-896adedea40f
MP,UMID,2,59002a79-71c2-428e-906b-55d7dbee100e

/wb,mat,end                !  done sending materials
!************************* Model Summary ********************
!wal,	Structural Steel,	matid,	1
!Solid,	Structural Steel,	matid,	2
!************************* End Model Summary ********************
! get the diagonal of the bounding box. Needed later for other things
*get,_xmin,node,,mnloc,x
*get,_ymin,node,,mnloc,y
*get,_zmin,node,,mnloc,z
*get,_xmax,node,,mxloc,x
*get,_ymax,node,,mxloc,y
*get,_zmax,node,,mxloc,z
_ASMDIAG=(_xmax-_xmin)*(_xmax-_xmin)+(_ymax-_ymin)*(_ymax-_ymin)+(_zmax-_zmin)*(_zmax-_zmin)
_ASMDIAG=SQRT(_ASMDIAG)
/wb,contact,start          !  starting to send contact
/com,*********** Create Contact "Frictionless - wal To Solid" ***********
/com,            Real Constant Set For Above Contact Is 4 & 3 
*set,tid,4
*set,cid,3
r,tid
r,cid
et,tid,170
et,cid,174
eblock,10,,,610
(15i9)
     9932        4        4        4        0     6138     6117     6152     6152    10052    10054     6152    10201
     9933        4        4        4        0     6131     6113     6149     6149    10024    10025     6149    10157
     9934        4        4        4        0     6129     6112     6147     6147    10017    10018     6147    10143
     9935        4        4        4        0     6102     6099     6145     6145     9917     9919     6145     9942
     9936        4        4        4        0     6104     6109     6144     6144     9959     9997     6144     9961
     9937        4        4        4        0     6116     6134     6150     6150    10044    10178     6150    10045
     9938        4        4        4        0     6110     6131     6148     6148    10005    10156     6148    10007
     9939        4        4        4        0     6107     6129     6146     6146     9984    10142     6146     9986
     9940        4        4        4        0     6127     6100     6142     6142     9927     9929     6142    10129
     9941        4        4        4        0     6125     6103     6141     6141     9950     9952     6141    10113
     9942        4        4        4        0     6106     6125     6141     6141     9976    10113     6141     9977
     9943        4        4        4        0     6105     6127     6142     6142     9968    10129     6142     9969
     9944        4        4        4        0     6124     6140     6199     6199    10104    10214     6199    10106
     9945        4        4        4        0     6123     6139     6153     6153    10098    10208     6153    10100
     9946        4        4        4        0     6139     6118     6153     6153    10060    10061     6153    10208
     9947        4        4        4        0     6215     6126     6154     6154    10123    10119     6154    10287
     9948        4        4        4        0     6126     6117     6155     6155    10051    10055     6155    10120
     9949        4        4        4        0     6101     6128     6156     6156     9934    10138     6156     9936
     9950        4        4        4        0     6128     6134     6140     6140    10133    10177     6140    10134
     9951        4        4        4        0     6108     6130     6157     6157     9990    10149     6157     9991
! ... 591 like lines cut
eblock,10,,,610
(15i9)
    10542        3        3        3        0     6138     6117     6152     6152    10052    10054     6152    10201
    10543        3        3        3        0     6131     6113     6149     6149    10024    10025     6149    10157
    10544        3        3        3        0     6129     6112     6147     6147    10017    10018     6147    10143
    10545        3        3        3        0     6102     6099     6145     6145     9917     9919     6145     9942
    10546        3        3        3        0     6104     6109     6144     6144     9959     9997     6144     9961
    10547        3        3        3        0     6116     6134     6150     6150    10044    10178     6150    10045
    10548        3        3        3        0     6110     6131     6148     6148    10005    10156     6148    10007
    10549        3        3        3        0     6107     6129     6146     6146     9984    10142     6146     9986
    10550        3        3        3        0     6127     6100     6142     6142     9927     9929     6142    10129
    10551        3        3        3        0     6125     6103     6141     6141     9950     9952     6141    10113
    10552        3        3        3        0     6106     6125     6141     6141     9976    10113     6141     9977
    10553        3        3        3        0     6105     6127     6142     6142     9968    10129     6142     9969
    10554        3        3        3        0     6124     6140     6199     6199    10104    10214     6199    10106
    10555        3        3        3        0     6123     6139     6153     6153    10098    10208     6153    10100
    10556        3        3        3        0     6139     6118     6153     6153    10060    10061     6153    10208
    10557        3        3        3        0     6215     6126     6154     6154    10123    10119     6154    10287
    10558        3        3        3        0     6126     6117     6155     6155    10051    10055     6155    10120
    10559        3        3        3        0     6101     6128     6156     6156     9934    10138     6156     9936
    10560        3        3        3        0     6128     6134     6140     6140    10133    10177     6140    10134
    10561        3        3        3        0     6108     6130     6157     6157     9990    10149     6157     9991
! ... 591 like lines cut
eblock,10,,,676
(15i9)
    11152        3        4        3        0      116      101      428      428     1604     1606      428     1691
    11153        3        4        3        0       69       84      416      416     1489     1528      416     1491
    11154        3        4        3        0       61       76      418      418     1457     1512      418     1459
    11155        3        4        3        0       74       58      471      471     1445     1448      471     1509
    11156        3        4        3        0       70       85      429      429     1493     1530      429     1495
    11157        3        4        3        0      114       99      438      438     1594     1596      438     1680
    11158        3        4        3        0       73       88      437      437     1505     1536      437     1507
    11159        3        4        3        0      107      470      419      419     1646     3425      419     1645
    11160        3        4        3        0       91      107      419      419     1546     1645      419     1547
    11161        3        4        3        0       67       82      417      417     1481     1524      417     1483
    11162        3        4        3        0       87       71      473      473     1498     1500      473     1535
    11163        3        4        3        0       59       74      471      471     1449     1509      471     1452
    11164        3        4        3        0      115      100      436      436     1598     1600      436     1685
    11165        3        4        3        0       66       81      434      434     1477     1522      434     1479
    11166        3        4        3        0      100      116      467      467     1599     1692      467     1601
    11167        3        4        3        0       90      106      427      427     1540     1640      427     1542
    11168        3        4        3        0      111       96      435      435     1577     1579      435     1663
    11169        3        4        3        0       62       77      432      432     1461     1514      432     1463
    11170        3        4        3        0      105      468      425      425     1637     3449      425     1635
    11171        3        4        3        0      120      105      425      425     1633     1635      425     1710
! ... 657 like lines cut
eblock,10,,,676
(15i9)
    11828        4        3        4        0      116      101      428      428     1604     1606      428     1691
    11829        4        3        4        0       69       84      416      416     1489     1528      416     1491
    11830        4        3        4        0       61       76      418      418     1457     1512      418     1459
    11831        4        3        4        0       74       58      471      471     1445     1448      471     1509
    11832        4        3        4        0       70       85      429      429     1493     1530      429     1495
    11833        4        3        4        0      114       99      438      438     1594     1596      438     1680
    11834        4        3        4        0       73       88      437      437     1505     1536      437     1507
    11835        4        3        4        0      107      470      419      419     1646     3425      419     1645
    11836        4        3        4        0       91      107      419      419     1546     1645      419     1547
    11837        4        3        4        0       67       82      417      417     1481     1524      417     1483
    11838        4        3        4        0       87       71      473      473     1498     1500      473     1535
    11839        4        3        4        0       59       74      471      471     1449     1509      471     1452
    11840        4        3        4        0      115      100      436      436     1598     1600      436     1685
    11841        4        3        4        0       66       81      434      434     1477     1522      434     1479
    11842        4        3        4        0      100      116      467      467     1599     1692      467     1601
    11843        4        3        4        0       90      106      427      427     1540     1640      427     1542
    11844        4        3        4        0      111       96      435      435     1577     1579      435     1663
    11845        4        3        4        0       62       77      432      432     1461     1514      432     1463
    11846        4        3        4        0      105      468      425      425     1637     3449      425     1635
    11847        4        3        4        0      120      105      425      425     1633     1635      425     1710
! ... 657 like lines cut
keyo,cid,8,2               ! auto create asymmetric contact (from Program Controlled setting)
keyo,cid,10,0              ! adjust contact stiffness each NR iteration (from Program Controlled setting)
keyo,cid,12,0              ! standard contact
keyo,cid,2,0               ! augmented Lagrange (from Program Controlled setting)
keyo,cid,4,0               ! on Gauss point (from Program Controlled setting)
keyo,cid,9,0               ! use real geometry with stepped effects
keyo,cid,7,0               ! No Prediction
rmod,tid,3,1.       ! FKN
rmod,tid,5,0.       ! ICONT
rmod,tid,6,0.       ! PINB
rmod,tid,10,0.      ! CNOF
rmod,tid,12,0.      ! FKT
rmod,tid,36,27      ! WB DSID
rmod,cid,3,1.       ! FKN
rmod,cid,5,0.       ! ICONT
rmod,cid,6,0.       ! PINB
rmod,cid,10,0.      ! CNOF
rmod,cid,12,0.      ! FKT
rmod,cid,36,27      ! WB DSID
nsel,all
esel,all
/wb,contact,end            !  done creating contacts
/golist
/wb,load,start             !  starting to send loads
/com,*********** Fixed Supports ***********
CMBLOCK,_FIXEDSU,NODE,      750
(8i10)
       122       123       124       125       126       127       128       129
       130       131       132       133       134       135       136       137
       138       139       140       141       142       143       144       145
       146       147       148       149       150       151       152       153
       154       155       156       157       158       159       160       161
       162       163       164       165       166       167       168       169
       170       171       172       173       174       175       176       177
       178       179       180       181       182       183       184       185
       186       187       188       189       190       191       192       193
       194       195       196       197       198       199       287       288
       289       290       291       292       293       294       295       296
       297       298       299       300       301       302       303       304
       305       306       307       308       309       310       311       312
       313       314       315       316       317       318       319       320
       321       322       323       324       325       326       327       328
       329       330       331       332       333       334       335       336
       337       338       339       340       341       342       343       344
       345       346       347       348       349       350       351       352
       353       354       355       356       357       358       359       360
       361       362       363       364       365       366       367       368
! ... 74 like lines cut
cmsel,s,_FIXEDSU
d,all,all
nsel,all
/com,*********** Define Vertex Force Using Follower Elements ***********
et,5,201
keyo,5,1,1           ! Keep the direction constant
keyo,5,2,1           ! Apply Forces only, not moment
mat,5
real,5
type,5
en,12504,5635
r,5
rmod,5,1,1.0,              ! FX
mat,6
real,6
type,5
en,12505,5635
r,6
rmod,6,2,1.0,              ! FY
mat,7
real,7
type,5
en,12506,5635
r,7
rmod,7,3,1.0,              ! FZ

*DIM,_loadvari40x,TABLE,3,1,1,TIME
! Time values
*TAXIS,_loadvari40x(1),1,0.,1.,2.
! Load values
_loadvari40x(1,1,1) = 0.
_loadvari40x(2,1,1) = 0.
_loadvari40x(3,1,1) = 2500.



*DIM,_loadvari40y,TABLE,3,1,1,TIME
! Time values
*TAXIS,_loadvari40y(1),1,0.,1.,2.
! Load values
_loadvari40y(1,1,1) = 0.
_loadvari40y(2,1,1) = 0.
_loadvari40y(3,1,1) = -12000.


/com,*********** Define Vertex Force Using Follower Elements ***********
et,8,201
keyo,8,1,1           ! Keep the direction constant
keyo,8,2,1           ! Apply Forces only, not moment
mat,8
real,8
type,8
en,12507,5636
r,8
rmod,8,1,1.0,              ! FX
mat,9
real,9
type,8
en,12508,5636
r,9
rmod,9,2,1.0,              ! FY
mat,10
real,10
type,8
en,12509,5636
r,10
rmod,10,3,1.0,              ! FZ

*DIM,_loadvari42x,TABLE,3,1,1,TIME
! Time values
*TAXIS,_loadvari42x(1),1,0.,1.,2.
! Load values
_loadvari42x(1,1,1) = 0.
_loadvari42x(2,1,1) = 0.
_loadvari42x(3,1,1) = -2500.


/com,*********** Create Displacement Tables and Functions ******

*DIM,_loadvari45xp,TABLE,2,1,1,TIME
! Time values
*TAXIS,_loadvari45xp(1),1,0.,1.
! Load values
_loadvari45xp(1,1,1) = 0.
_loadvari45xp(2,1,1) = -0.151



*DIM,_loadvari45xn,TABLE,2,1,1,TIME
! Time values
*TAXIS,_loadvari45xn(1),1,0.,1.
! Load values
_loadvari45xn(1,1,1) = 0.
_loadvari45xn(2,1,1) = 0.151


/gst,on,on
fini
*get,_numnode,node,0,count
*get,_numelem,elem,0,count
*get, _MAXELEMNUM, elem, 0, NUM, MAX
*get, _MAXNODENUM, node, 0, NUM, MAX
*get, _MAXELEMTYPE, etyp, 0, NUM, MAX
*get, _MAXREALCONST, real, 0, NUM, MAX
/go
/wb,load,end               !  done creating loads
/com,--- Number of total nodes = %_numnode%
/com,--- Number of contact elements = 2572
/com,--- Number of spring elements = 0
/com,--- Number of bearing elements = 0
/com,--- Number of solid elements = 6707
/com,--- Number of condensed parts = 0
/com,--- Number of total elements = %_numelem%
*get,_wallbsol,active,,time,wall
/com,****************************************************************************
/com,*************************    SOLUTION       ********************************
/com,****************************************************************************
/solu
antype,0                   ! static analysis
nlgeom,on                  ! Turn on Large Deformation Effects
_thickRatio=  1     ! Ratio of thick parts in the model
eqsl,pcg,1e-8,,,,,,1
cntr,print,1               ! print out contact info and also make no initial contact an error
dmpoption,emat,no             ! Don't combine emat file for DANSYS
dmpoption,esav,no             ! Don't combine esav file for DANSYS
nldiag,cont,iter           ! print out contact info each equilibrium iteration
rescontrol,define,last,last,,dele	   ! Program Controlled
/com,****************************************************
/com,******************* SOLVE FOR LS 1 OF 2 ****************
esel,s,real,,5
sfe,all,1,pres,1,%_loadvari40x%
esel,s,real,,6
sfe,all,1,pres,1,%_loadvari40y%
esel,s,real,,7
sfe,all,1,pres,1,0.
esel,s,real,,8
sfe,all,1,pres,1,%_loadvari42x%
esel,s,real,,9
sfe,all,1,pres,1,0.
esel,s,real,,10
sfe,all,1,pres,1,0.
esel,all
/com,*** Set Displacements ***
CMBLOCK,_CM45UX_XP,NODE,        1
(8i10)
      5485
cmsel,s,_CM45UX_XP
d,all,ux,%_loadvari45xp%
nsel,all

/com,*** Component For All Non-Zero UX Displacements ***
cmsel,s,_CM45ux_xp
cm,_DISPNONZEROUX,NODE
nsel,all

/nopr
/gopr
autots,on                  ! Workbench Program Controlled automatic time stepping
nsub,1,10,1                ! due to presence of general nonlinear
time,1.
outres,erase
outres,all,none
outres,nsol,all,
outres,rsol,all
outres,eangl,all
outres,etmp,all
outres,veng,all
outres,strs,all,
outres,epel,all,
outres,eppl,all,
outres,cont,all,
! *********** WB SOLVE COMMAND ***********
! check interactive state
*get,ANSINTER_,active,,int
*if,ANSINTER_,ne,0,then
/eof
*endif
solve
/com *************** Write FE CONNECTORS ********* 
CEWRITE,file,ce,,INTE
/com,****************************************************
/com,*************** FINISHED SOLVE FOR LS 1 *************
/com,****************************************************
/com,******************* SOLVE FOR LS 2 OF 2 ****************
/com,*** Set Displacements ***
/nopr
/gopr
autots,on                  ! Workbench Program Controlled automatic time stepping
nsub,1,10,1                ! due to presence of general nonlinear
time,2.
outres,erase
outres,all,none
outres,nsol,all,
outres,rsol,all
outres,eangl,all
outres,etmp,all
outres,veng,all
outres,strs,all,
outres,epel,all,
outres,eppl,all,
outres,cont,all,
solve
/com,****************************************************
/com,*************** FINISHED SOLVE FOR LS 2 *************
*get,_wallasol,active,,time,wall
/nopr
*get,_numnode,node,0,count
*get,_numelem,elem,0,count
*get, _MAXELEMNUM, elem, 0, NUM, MAX
*get, _MAXNODENUM, node, 0, NUM, MAX,,,INTERNAL
*get, _MAXELEMTYPE, etyp, 0, NUM, MAX
*get, _MAXREALCONST, real, 0, NUM, MAX
/gopr
*get,_PCGITER,active,,solu,cgiter
/post1
xmlo,ENCODING,ISO-8859-1
xmlo,parm
/xml,parm,xml
fini
/gopr
*get,_walldone,active,,time,wall
_preptime=(_wallbsol-_wallstrt)*3600
_solvtime=(_wallasol-_wallbsol)*3600
_posttime=(_walldone-_wallasol)*3600
_totaltim=(_walldone-_wallstrt)*3600
*get,_dlbratio,active,0,solu,dlbr
*get,_combtime,active,0,solu,comb
*get,_ssmode,active,0,solu,ssmm
*get,_ndofs,active,0,solu,ndof
/com,--- Total number of nodes = %_numnode%
/com,--- Total number of elements = %_numelem%
/com,--- Element load balance ratio = %_dlbratio%
/com,--- Time to combine distributed files = %_combtime%
/com,--- Sparse memory mode = %_ssmode%
/com,--- Number of DOF = %_ndofs%
/wb,file,end               ! done with WB generated input
