/PREP7  
ET,1,SOLID95
MP,EX,1,2.1E5
MP,PRXY,1,0.3


LESIZE,ALL,,,4
ESHAPE,2

VMESH,ALL

FINISH